Cases/test/data_old/branch_specific/scenario_results_case1354pegase.csv
line_id,y_cos_f_w1_vm_from,y_cos_f_w2_vm_to,y_cos_f_w3_theta_i,y_cos_f_w4_theta_j,y_cos_f_bias,y_sin_f_w1_vm_from,y_sin_f_w2_vm_to,y_sin_f_w3_theta_i,y_sin_f_w4_theta_j,y_sin_f_bias
3_8189,0.0,0.0,0.0,0.0,1.1698660687321074,0.0,0.0,0.0,0.0,-0.05671434380367839
3_8676,0.0,0.0,0.0,0.0,1.1583009913076039,0.0,0.0,0.0,0.0,-0.0014593117013239388
4_1813,0.0,0.0,0.0,0.0,1.1336266894462512,0.0,0.0,0.0,0.0,-0.011993523172581837
21_6163,0.0,0.0,0.0,0.0,1.1205837030721653,0.0,0.0,0.0,0.0,7.225720835097679e-06
26_2479,0.0,0.0,0.0,0.0,1.1385340796718542,0.0,0.0,0.0,0.0,-0.020156731299677676
26_4231,0.0,0.0,0.0,0.0,1.1459099653997333,0.0,0.0,0.0,0.0,-0.02465793871354663
26_4598,0.0,0.0,0.0,0.0,1.1511092272344436,0.0,0.0,0.0,0.0,0.03345880700301892
26_5144,0.0,0.0,0.0,0.0,1.1497097864442751,0.0,0.0,0.0,0.0,-0.007602793449601222
26_6624,0.0,0.0,0.0,0.0,1.1429990303292492,0.0,0.0,0.0,0.0,-0.04201521961879361
44_1545,0.0,0.0,0.0,0.0,1.139673200722802,0.0,0.0,0.0,0.0,0.025458647285302723
44_3541,0.0,0.0,0.0,0.0,1.1367071193282772,0.0,0.0,0.0,0.0,0.03339268251587397
53_4031,0.0,0.0,0.0,0.0,1.1872021041037588,0.0,0.0,0.0,0.0,0.010315278599831265
58_221,0.0,0.0,0.0,0.0,1.0882006907388415,0.0,0.0,0.0,0.0,0.0007066678880266054
59_2360,0.0,0.0,0.0,0.0,1.18274849073548,0.0,0.0,0.0,0.0,-0.02466415509248381
59_5764,0.0,0.0,0.0,0.0,1.1718636011629264,0.0,0.0,0.0,0.0,0.004413788627563904
90_1860,0.0,0.0,0.0,0.0,1.1898564978445352,0.0,0.0,0.0,0.0,-0.038538782588007345
113_3906,0.0,0.0,0.0,0.0,1.1424041838071677,0.0,0.0,0.0,0.0,-0.01870192710487677
113_7752,0.0,0.0,0.0,0.0,1.1327712312037792,0.0,0.0,0.0,0.0,0.08962889643698166
115_225,0.0,0.0,0.0,0.0,1.1402792064345577,0.0,0.0,0.0,0.0,0.007454319203818818
118_2426,0.0,0.0,0.0,0.0,1.1784664652087744,0.0,0.0,0.0,0.0,-0.062219866730329414
118_4598,0.0,0.0,0.0,0.0,1.1546507676750393,0.0,0.0,0.0,0.0,-0.027542751400376975
118_8903,0.0,0.0,0.0,0.0,1.153731537773296,0.0,0.0,0.0,0.0,-0.0008119709958155279
128_1554,0.0,0.0,0.0,0.0,1.1003755678059737,0.0,0.0,0.0,0.0,-0.00036530520742782764
148_7069,0.0,0.0,0.0,0.0,1.1527801048863213,0.0,0.0,0.0,0.0,-0.0003665164058469209
150_3558,0.0,0.0,0.0,0.0,1.176751889436624,0.0,0.0,0.0,0.0,9.909629866819979e-05
150_5099,0.0,0.0,0.0,0.0,1.179884348713269,0.0,0.0,0.0,0.0,-0.000173573705798478
163_2430,0.0,0.0,0.0,0.0,1.1629379830481952,0.0,0.0,0.0,0.0,0.005837215297119789
163_3498,0.0,0.0,0.0,0.0,1.1619184214723828,0.0,0.0,0.0,0.0,0.0040326753358022206
171_2341,0.0,0.0,0.0,0.0,1.1958758520352535,0.0,0.0,0.0,0.0,0.015732643382031845
174_6430,0.0,0.0,0.0,0.0,1.1707121590312959,0.0,0.0,0.0,0.0,-0.022678299869675476
184_1526,0.0,0.0,0.0,0.0,1.1327999808182942,0.0,0.0,0.0,0.0,-1.2062255611220064e-05
195_2985,0.0,0.0,0.0,0.0,1.1776936693688291,0.0,0.0,0.0,0.0,-0.0046803532002662705
196_1973,0.0,0.0,0.0,0.0,1.208575593271089,0.0,0.0,0.0,0.0,-0.0004051194855147311
198_1554,0.0,0.0,0.0,0.0,1.0958923853718634,0.0,0.0,0.0,0.0,-0.00844776299884371
198_7994,0.0,0.0,0.0,0.0,1.0898004943888524,0.0,0.0,0.0,0.0,0.002025639983465027
207_4747,0.0,0.0,0.0,0.0,1.1098021894179948,0.0,0.0,0.0,0.0,-0.020281988790321767
207_7791,0.0,0.0,0.0,0.0,1.1045350997754106,0.0,0.0,0.0,0.0,-0.00836125714439634
217_1179,0.0,0.0,0.0,0.0,1.0889058446628992,0.0,0.0,0.0,0.0,0.0037730734209940964
217_2575,0.0,0.0,0.0,0.0,1.089693067999393,0.0,0.0,0.0,0.0,0.002194290897955419
217_6785,0.0,0.0,0.0,0.0,1.0987951998365733,0.0,0.0,0.0,0.0,-0.03150925046293754
217_7274,0.0,0.0,0.0,0.0,1.0995127734960635,0.0,0.0,0.0,0.0,0.010396985456354245
218_2088,0.0,0.0,0.0,0.0,1.1929760392640354,0.0,0.0,0.0,0.0,-0.01873706856181614
221_1541,0.0,0.0,0.0,0.0,1.1446729130186548,0.0,0.0,0.0,0.0,0.03136680162803882
280_9158,0.0,0.0,0.0,0.0,1.1558850843348774,0.0,0.0,0.0,0.0,0.05619678217951921
283_800,0.0,0.0,0.0,0.0,1.119471705641515,0.0,0.0,0.0,0.0,0.0007070098487203883
283_1077,0.0,0.0,0.0,0.0,1.1199649774379734,0.0,0.0,0.0,0.0,4.143876632326623e-07
283_4747,0.0,0.0,0.0,0.0,1.119474682977289,0.0,0.0,0.0,0.0,0.002308603436522213
292_4544,0.0,0.0,0.0,0.0,1.2020068902282892,0.0,0.0,0.0,0.0,-0.0012194389484570924
314_2467,0.0,0.0,0.0,0.0,1.0748865519307877,0.0,0.0,0.0,0.0,-0.03067998725196644
314_4300,0.0,0.0,0.0,0.0,1.061261307579887,0.0,0.0,0.0,0.0,0.002860830164943204
314_5256,0.0,0.0,0.0,0.0,1.0626787851028598,0.0,0.0,0.0,0.0,0.001984817468060971
314_5789,0.0,0.0,0.0,0.0,1.0629569465577078,0.0,0.0,0.0,0.0,3.352081073459306e-06
338_7824,0.0,0.0,0.0,0.0,1.207742296315283,0.0,0.0,0.0,0.0,0.00012697307891799202
346_3184,0.0,0.0,0.0,0.0,1.1742136705803534,0.0,0.0,0.0,0.0,0.0007320455802434705
346_6570,0.0,0.0,0.0,0.0,1.1796364676712527,0.0,0.0,0.0,0.0,-0.010232213263869094
367_1172,0.0,0.0,0.0,0.0,1.20229924760345,0.0,0.0,0.0,0.0,0.03906316551409782
367_8722,0.0,0.0,0.0,0.0,1.1997406221280353,0.0,0.0,0.0,0.0,0.028893649270581776
367_9191,0.0,0.0,0.0,0.0,1.2014562909718645,0.0,0.0,0.0,0.0,0.024099511705294202
401_1584,0.0,0.0,0.0,0.0,1.1976975666035352,0.0,0.0,0.0,0.0,-0.0002871949729529077
410_4189,0.0,0.0,0.0,0.0,1.1730434606210898,0.0,0.0,0.0,0.0,-0.006664854555609991
413_1102,0.0,0.0,0.0,0.0,1.16529030234028,0.0,0.0,0.0,0.0,0.0001266762481371641
416_3492,0.0,0.0,0.0,0.0,1.1991395821261992,0.0,0.0,0.0,0.0,-0.015342195594035546
416_7937,0.0,0.0,0.0,0.0,1.1834279937302454,0.0,0.0,0.0,0.0,0.012932993920725359
432_1895,0.0,0.0,0.0,0.0,1.1414802350745015,0.0,0.0,0.0,0.0,-0.037965772608493355
432_2393,0.0,0.0,0.0,0.0,1.1414263065625414,0.0,0.0,0.0,0.0,-0.0387506138501932
432_3112,0.0,0.0,0.0,0.0,1.143347309814729,0.0,0.0,0.0,0.0,0.0
432_3246,0.0,0.0,0.0,0.0,1.1467000478111964,0.0,0.0,0.0,0.0,-0.040179649610450244
432_3412,0.0,0.0,0.0,0.0,1.143347309814729,0.0,0.0,0.0,0.0,0.0
432_5586,0.0,0.0,0.0,0.0,1.143347309814729,0.0,0.0,0.0,0.0,0.0
432_7857,0.0,0.0,0.0,0.0,1.1523963865096007,0.0,0.0,0.0,0.0,0.05697303456912253
432_8846,0.0,0.0,0.0,0.0,1.141377223601252,0.0,0.0,0.0,0.0,-0.03935353809711398
444_4747,0.0,0.0,0.0,0.0,1.119560837483753,0.0,0.0,0.0,0.0,0.0015738108118727953
453_2129,0.0,0.0,0.0,0.0,1.1371581646874405,0.0,0.0,0.0,0.0,0.008532983670638063
455_333,0.0,0.0,0.0,0.0,1.0962025614978856,0.0,0.0,0.0,0.0,0.1857051702356741
455_3857,0.0,0.0,0.0,0.0,1.1702519133137321,0.0,0.0,0.0,0.0,-0.12802820059269146
455_6940,0.0,0.0,0.0,0.0,1.155041128480933,0.0,0.0,0.0,0.0,-0.05706585367522564
455_7775,0.0,0.0,0.0,0.0,1.1533287967031438,0.0,0.0,0.0,0.0,-0.030335840439616797
490_2653,0.0,0.0,0.0,0.0,1.1146159533075592,0.0,0.0,0.0,0.0,-0.00012612023709967325
500_772,0.0,0.0,0.0,0.0,1.1642412578702617,0.0,0.0,0.0,0.0,0.02016847054017516
500_1547,0.0,0.0,0.0,0.0,1.1701784306747818,0.0,0.0,0.0,0.0,1.1100930939633751e-05
500_5237,0.0,0.0,0.0,0.0,1.1785266405124992,0.0,0.0,0.0,0.0,-0.03043474765118936
500_8950,0.0,0.0,0.0,0.0,1.178608766397352,0.0,0.0,0.0,0.0,-0.024234268837451493
502_3589,0.0,0.0,0.0,0.0,1.1724478235018898,0.0,0.0,0.0,0.0,0.0010429258241638078
506_960,0.0,0.0,0.0,0.0,1.1551407387458694,0.0,0.0,0.0,0.0,-9.241137368926934e-08
513_2866,0.0,0.0,0.0,0.0,1.1594493117327027,0.0,0.0,0.0,0.0,0.009396330421380968
520_5918,0.0,0.0,0.0,0.0,1.2026097958422421,0.0,0.0,0.0,0.0,-0.007354453128332528
549_2291,0.0,0.0,0.0,0.0,1.2004183450016286,0.0,0.0,0.0,0.0,-0.013110892551548627
549_3656,0.0,0.0,0.0,0.0,1.2028044342934452,0.0,0.0,0.0,0.0,-0.009609597521967925
549_5002,0.0,0.0,0.0,0.0,1.2095743832887036,0.0,0.0,0.0,0.0,0.028128335162085582
549_6290,0.0,0.0,0.0,0.0,1.1983126756845395,0.0,0.0,0.0,0.0,0.0009359982670014864
564_2252,0.0,0.0,0.0,0.0,1.192835801101834,0.0,0.0,0.0,0.0,0.018070724462845838
564_7903,0.0,0.0,0.0,0.0,1.1977917435504748,0.0,0.0,0.0,0.0,-0.06935581286648553
564_8475,0.0,0.0,0.0,0.0,1.1963000481481045,0.0,0.0,0.0,0.0,0.03438669805214986
575_5300,0.0,0.0,0.0,0.0,1.1398710960344773,0.0,0.0,0.0,0.0,-0.003024556109935638
583_6031,0.0,0.0,0.0,0.0,1.1882330451922904,0.0,0.0,0.0,0.0,0.01833071023785672
583_6616,0.0,0.0,0.0,0.0,1.1871783794898627,0.0,0.0,0.0,0.0,0.007346059430493835
601_616,0.0,0.0,0.0,0.0,1.2010186055654446,0.0,0.0,0.0,0.0,-0.03230819713474721
604_4000,0.0,0.0,0.0,0.0,1.0455502093576865,0.0,0.0,0.0,0.0,0.026432707894068166
604_7522,0.0,0.0,0.0,0.0,1.049366710447912,0.0,0.0,0.0,0.0,-0.02151764735574192
609_772,0.0,0.0,0.0,0.0,1.1538831506503764,0.0,0.0,0.0,0.0,-0.011076857771059984
609_1341,0.0,0.0,0.0,0.0,1.1619757375094852,0.0,0.0,0.0,0.0,-0.019075143802363463
609_2079,0.0,0.0,0.0,0.0,1.167740297189047,0.0,0.0,0.0,0.0,-0.032140980954408864
609_5419,0.0,0.0,0.0,0.0,1.1452209752490659,0.0,0.0,0.0,0.0,0.005980609282417408
619_6791,0.0,0.0,0.0,0.0,1.1944757832953383,0.0,0.0,0.0,0.0,-0.0004876862731854865
639_2749,0.0,0.0,0.0,0.0,1.1997834605249724,0.0,0.0,0.0,0.0,0.002563205427250813
639_6351,0.0,0.0,0.0,0.0,1.165679228275616,0.0,0.0,0.0,0.0,-0.2973830334028333
639_9130,0.0,0.0,0.0,0.0,1.1998982369811688,0.0,0.0,0.0,0.0,0.018119143736571485
658_3793,0.0,0.0,0.0,0.0,1.1203537923866738,0.0,0.0,0.0,0.0,0.03655179941384916
658_8497,0.0,0.0,0.0,0.0,1.1223711643285939,0.0,0.0,0.0,0.0,-0.046092418627816684
666_1494,0.0,0.0,0.0,0.0,1.1325986252401983,0.0,0.0,0.0,0.0,-0.0023615943265231703
666_1607,0.0,0.0,0.0,0.0,1.1226161915760011,0.0,0.0,0.0,0.0,0.0018612347332612523
666_2093,0.0,0.0,0.0,0.0,1.1125672570985001,0.0,0.0,0.0,0.0,0.018658234426283248
666_2732,0.0,0.0,0.0,0.0,1.103868672301572,0.0,0.0,0.0,0.0,0.02979219703153214
666_4550,0.0,0.0,0.0,0.0,1.115486562183079,0.0,0.0,0.0,0.0,0.024015408849060768
678_4454,0.0,0.0,0.0,0.0,1.1829859953954285,0.0,0.0,0.0,0.0,-0.0024562759341104703
682_8477,0.0,0.0,0.0,0.0,1.1796121878085797,0.0,0.0,0.0,0.0,0.0018103142556911435
707_5695,0.0,0.0,0.0,0.0,1.1761578218753974,0.0,0.0,0.0,0.0,0.00025431409810398
718_6982,0.0,0.0,0.0,0.0,1.1889967628439768,0.0,0.0,0.0,0.0,-0.05101141940307503
718_8397,0.0,0.0,0.0,0.0,1.184453280577451,0.0,0.0,0.0,0.0,-0.005023722057343824
720_1711,0.0,0.0,0.0,0.0,1.126012389686181,0.0,0.0,0.0,0.0,0.04258524002148463
720_5350,0.0,0.0,0.0,0.0,1.0529927861294517,0.0,0.0,0.0,0.0,-0.03124276317658827
726_687,0.0,0.0,0.0,0.0,1.1376848118427796,0.0,0.0,0.0,0.0,-0.017016001936597004
742_687,0.0,0.0,0.0,0.0,1.1480527055900962,0.0,0.0,0.0,0.0,-3.0220447506315047e-05
747_8507,0.0,0.0,0.0,0.0,1.2073018828623177,0.0,0.0,0.0,0.0,-0.0006422840088325108
749_4324,0.0,0.0,0.0,0.0,1.1943100749808266,0.0,0.0,0.0,0.0,0.07457310979091068
750_870,0.0,0.0,0.0,0.0,1.18505079685856,0.0,0.0,0.0,0.0,0.0031216534779816437
750_2961,0.0,0.0,0.0,0.0,1.1855428877254475,0.0,0.0,0.0,0.0,-0.001143666706732929
750_8328,0.0,0.0,0.0,0.0,1.1856759522795615,0.0,0.0,0.0,0.0,-0.0005620301951358146
757_964,0.0,0.0,0.0,0.0,1.1151109464741933,0.0,0.0,0.0,0.0,-0.02130069626051507
757_2919,0.0,0.0,0.0,0.0,1.0615418386501887,0.0,0.0,0.0,0.0,0.11886088573448589
757_3758,0.0,0.0,0.0,0.0,1.1145515225206795,0.0,0.0,0.0,0.0,0.07984663066620241
757_3906,0.0,0.0,0.0,0.0,1.1295295165714554,0.0,0.0,0.0,0.0,-0.04276990226645603
757_8347,0.0,0.0,0.0,0.0,1.0802863467211097,0.0,0.0,0.0,0.0,0.10103859944285977
769_5233,0.0,0.0,0.0,0.0,1.0938981187211807,0.0,0.0,0.0,0.0,-0.004563018752640767
778_1910,0.0,0.0,0.0,0.0,1.208717947884675,0.0,0.0,0.0,0.0,1.7019835354688753e-05
778_3071,0.0,0.0,0.0,0.0,1.2093233277087485,0.0,0.0,0.0,0.0,0.0001738585941209722
778_6820,0.0,0.0,0.0,0.0,1.2086498669303716,0.0,0.0,0.0,0.0,-1.3806862606057009e-08
778_7209,0.0,0.0,0.0,0.0,1.2086499326505267,0.0,0.0,0.0,0.0,-2.359578018773397e-07
803_5918,0.0,0.0,0.0,0.0,1.207115365512047,0.0,0.0,0.0,0.0,0.042928357097741454
803_6982,0.0,0.0,0.0,0.0,1.2068259539760997,0.0,0.0,0.0,0.0,0.0013540689451487288
804_2142,0.0,0.0,0.0,0.0,1.205783595200489,0.0,0.0,0.0,0.0,0.0035554341890157966
804_6744,0.0,0.0,0.0,0.0,1.1875015362709191,0.0,0.0,0.0,0.0,0.04065508920498803
804_7519,0.0,0.0,0.0,0.0,1.1946864507170099,0.0,0.0,0.0,0.0,0.031223780457692186
805_2088,0.0,0.0,0.0,0.0,1.2026144724650898,0.0,0.0,0.0,0.0,0.008148792147047461
805_3221,0.0,0.0,0.0,0.0,1.1973324156864098,0.0,0.0,0.0,0.0,0.018665181285748237
805_3327,0.0,0.0,0.0,0.0,1.1859282024999815,0.0,0.0,0.0,0.0,0.020321088562612968
805_8310,0.0,0.0,0.0,0.0,1.2075727952696693,0.0,0.0,0.0,0.0,-0.03310382116296099
809_687,0.0,0.0,0.0,0.0,1.1078646436584563,0.0,0.0,0.0,0.0,0.06577554535713416
809_4594,0.0,0.0,0.0,0.0,1.0489528662866885,0.0,0.0,0.0,0.0,0.07271265447242953
809_7098,0.0,0.0,0.0,0.0,1.1008257101992505,0.0,0.0,0.0,0.0,0.03944708737670691
819_7523,0.0,0.0,0.0,0.0,1.185187842041158,0.0,0.0,0.0,0.0,-1.697438836288992e-06
839_809,0.0,0.0,0.0,0.0,1.0710041998562183,0.0,0.0,0.0,0.0,-0.013346737655341568
839_3918,0.0,0.0,0.0,0.0,1.0680439621829065,0.0,0.0,0.0,0.0,0.00469340058621283
839_4506,0.0,0.0,0.0,0.0,1.089351299569672,0.0,0.0,0.0,0.0,0.04768322598709704
851_4454,0.0,0.0,0.0,0.0,1.1966636226538294,0.0,0.0,0.0,0.0,0.018878330129869322
858_1642,0.0,0.0,0.0,0.0,1.0726412739148328,0.0,0.0,0.0,0.0,0.007053534910088013
871_2878,0.0,0.0,0.0,0.0,1.1874519848917993,0.0,0.0,0.0,0.0,-0.029897375374603626
871_4031,0.0,0.0,0.0,0.0,1.1847010908870184,0.0,0.0,0.0,0.0,-0.018887122289450567
883_3331,0.0,0.0,0.0,0.0,1.1372459160606392,0.0,0.0,0.0,0.0,0.0015701719867248594
891_3697,0.0,0.0,0.0,0.0,1.1606351643655763,0.0,0.0,0.0,0.0,0.04618075069991557
891_6306,0.0,0.0,0.0,0.0,1.1876963174284927,0.0,0.0,0.0,0.0,0.12230168567750242
900_6619,0.0,0.0,0.0,0.0,1.1648985966347878,0.0,0.0,0.0,0.0,-3.826700097782114e-07
903_3654,0.0,0.0,0.0,0.0,1.2068133068695182,0.0,0.0,0.0,0.0,-0.00023562368096152598
905_8189,0.0,0.0,0.0,0.0,1.1654940342460909,0.0,0.0,0.0,0.0,0.012936819692274235
907_9091,0.0,0.0,0.0,0.0,1.1946258099143754,0.0,0.0,0.0,0.0,-2.3295207956280065e-08
908_6474,0.0,0.0,0.0,0.0,1.193274130717356,0.0,0.0,0.0,0.0,-0.002335302658686017
920_6570,0.0,0.0,0.0,0.0,1.1847755149743824,0.0,0.0,0.0,0.0,-6.180254544787476e-05
933_3775,0.0,0.0,0.0,0.0,1.1431271114977208,0.0,0.0,0.0,0.0,0.031063087761087536
933_3975,0.0,0.0,0.0,0.0,1.119803366422977,0.0,0.0,0.0,0.0,0.09339639908223041
933_6357,0.0,0.0,0.0,0.0,1.124315169105544,0.0,0.0,0.0,0.0,0.06481522567169828
935_5383,0.0,0.0,0.0,0.0,1.1992732207363692,0.0,0.0,0.0,0.0,-0.00014428361662071
953_1730,0.0,0.0,0.0,0.0,1.0822714000439222,0.0,0.0,0.0,0.0,0.05305720327592268
960_8497,0.0,0.0,0.0,0.0,1.1405385202410885,0.0,0.0,0.0,0.0,0.09091030840291359
964_6475,0.0,0.0,0.0,0.0,1.132815859941473,0.0,0.0,0.0,0.0,-0.0652915524637799
964_7282,0.0,0.0,0.0,0.0,1.1345218945073332,0.0,0.0,0.0,0.0,-0.06954350942535185
972_3483,0.0,0.0,0.0,0.0,1.1253323170364562,0.0,0.0,0.0,0.0,0.033487235350932135
1001_516,0.0,0.0,0.0,0.0,1.17536231012512,0.0,0.0,0.0,0.0,-0.0033580032682566548
1001_892,0.0,0.0,0.0,0.0,1.169869824859203,0.0,0.0,0.0,0.0,0.02720883019034007
1001_1979,0.0,0.0,0.0,0.0,1.1745468491380389,0.0,0.0,0.0,0.0,9.866206652416559e-08
1001_3580,0.0,0.0,0.0,0.0,1.175615293941583,0.0,0.0,0.0,0.0,-0.00433528467304959
1001_3809,0.0,0.0,0.0,0.0,1.191486235670558,0.0,0.0,0.0,0.0,-0.03950159213793723
1001_4134,0.0,0.0,0.0,0.0,1.1745465343591117,0.0,0.0,0.0,0.0,2.3150336777873428e-07
1001_5616,0.0,0.0,0.0,0.0,1.1806270669854804,0.0,0.0,0.0,0.0,0.009005701723806277
1001_6697,0.0,0.0,0.0,0.0,1.1450720712089735,0.0,0.0,0.0,0.0,0.0711993228387607
1001_7165,0.0,0.0,0.0,0.0,1.1718160850111508,0.0,0.0,0.0,0.0,0.012848598674730769
1002_4852,0.0,0.0,0.0,0.0,1.1791916429325273,0.0,0.0,0.0,0.0,0.0051035895672168685
1005_8515,0.0,0.0,0.0,0.0,1.1995757754115561,0.0,0.0,0.0,0.0,-2.176682366710435e-05
1026_1860,0.0,0.0,0.0,0.0,1.1780450079964553,0.0,0.0,0.0,0.0,-0.0550847933287877
1027_44,0.0,0.0,0.0,0.0,1.0785319961286521,0.0,0.0,0.0,0.0,0.06926459891934503
1027_2458,0.0,0.0,0.0,0.0,1.0226924844730316,0.0,0.0,0.0,0.0,-0.07446545304025105
1027_2919,0.0,0.0,0.0,0.0,1.023920800447317,0.0,0.0,0.0,0.0,-0.0032237132790948982
1027_3243,0.0,0.0,0.0,0.0,1.0210432474828701,0.0,0.0,0.0,0.0,1.0843609802207733e-06
1027_7148,0.0,0.0,0.0,0.0,1.0851869617684808,0.0,0.0,0.0,0.0,0.061259267573391535
1035_305,0.0,0.0,0.0,0.0,1.1762010966699716,0.0,0.0,0.0,0.0,0.002235604878358077
1035_5106,0.0,0.0,0.0,0.0,1.180826816616308,0.0,0.0,0.0,0.0,-0.011897087660119503
1035_7466,0.0,0.0,0.0,0.0,1.1631223520917393,0.0,0.0,0.0,0.0,-0.011977502861700448
1035_8180,0.0,0.0,0.0,0.0,1.1852161021026475,0.0,0.0,0.0,0.0,-0.025366200674613967
1043_3513,0.0,0.0,0.0,0.0,1.1463626914384906,0.0,0.0,0.0,0.0,0.0005999843829787606
1078_6734,0.0,0.0,0.0,0.0,1.206404415300894,0.0,0.0,0.0,0.0,-7.433986984413776e-06
1081_6475,0.0,0.0,0.0,0.0,1.1583433777724121,0.0,0.0,0.0,0.0,-0.04052520288019824
...
